4575
  Mrv0541 02231217462D

 30 34  0  0  1  0            999 V2000
    8.6440    1.5551    0.0000 O   0  0  0  0  0  0  0  0  0  0  0  0
    3.6676   -1.9997    0.0000 O   0  0  0  0  0  0  0  0  0  0  0  0
    8.1169    0.5186    0.0000 C   0  0  1  0  0  0  0  0  0  0  0  0
    8.1169   -0.3064    0.0000 C   0  0  2  0  0  0  0  0  0  0  0  0
    7.4024   -0.7189    0.0000 C   0  0  1  0  0  0  0  0  0  0  0  0
    8.8976    0.7700    0.0000 C   0  0  2  0  0  0  0  0  0  0  0  0
    6.6880   -0.3064    0.0000 C   0  0  2  0  0  0  0  0  0  0  0  0
    7.4024    0.9311    0.0000 C   0  0  0  0  0  0  0  0  0  0  0  0
    8.8976   -0.5579    0.0000 C   0  0  0  0  0  0  0  0  0  0  0  0
    6.6880    0.5186    0.0000 C   0  0  0  0  0  0  0  0  0  0  0  0
    9.3791    0.1061    0.0000 C   0  0  0  0  0  0  0  0  0  0  0  0
    7.4157   -1.5783    0.0000 C   0  0  0  0  0  0  0  0  0  0  0  0
    8.1169    1.3436    0.0000 C   0  0  0  0  0  0  0  0  0  0  0  0
    5.9372   -0.7246    0.0000 C   0  0  0  0  0  0  0  0  0  0  0  0
    6.6748   -2.0136    0.0000 C   0  0  0  0  0  0  0  0  0  0  0  0
    5.9306   -1.5839    0.0000 C   0  0  0  0  0  0  0  0  0  0  0  0
    9.5659    1.2538    0.0000 C   0  0  0  0  0  0  0  0  0  0  0  0
    5.1726   -0.2592    0.0000 C   0  0  0  0  0  0  0  0  0  0  0  0
    5.1588   -2.0375    0.0000 C   0  0  0  0  0  0  0  0  0  0  0  0
    4.3906   -0.6948    0.0000 C   0  0  0  0  0  0  0  0  0  0  0  0
    4.3836   -1.5899    0.0000 C   0  0  0  0  0  0  0  0  0  0  0  0
   10.2341    1.7376    0.0000 C   0  0  0  0  0  0  0  0  0  0  0  0
    2.9547   -1.5844    0.0000 C   0  0  0  0  0  0  0  0  0  0  0  0
    2.8716   -0.7636    0.0000 C   0  0  0  0  0  0  0  0  0  0  0  0
    2.1997   -1.9171    0.0000 C   0  0  0  0  0  0  0  0  0  0  0  0
    2.0653   -0.5889    0.0000 C   0  0  0  0  0  0  0  0  0  0  0  0
    1.6500   -1.3018    0.0000 C   0  0  0  0  0  0  0  0  0  0  0  0
    8.1868   -0.9628    0.0000 H   0  0  0  0  0  0  0  0  0  0  0  0
    7.9766   -1.0445    0.0000 H   0  0  0  0  0  0  0  0  0  0  0  0
    7.2595    0.0236    0.0000 H   0  0  0  0  0  0  0  0  0  0  0  0
  6  1  1  1  0  0  0
  2 21  1  0  0  0  0
  2 23  1  0  0  0  0
  3  4  1  0  0  0  0
  3  6  1  0  0  0  0
  3  8  1  0  0  0  0
  3 13  1  1  0  0  0
  4  5  1  0  0  0  0
  4  9  1  0  0  0  0
  4 28  1  6  0  0  0
  5  7  1  0  0  0  0
  5 12  1  0  0  0  0
  5 29  1  1  0  0  0
  6 11  1  0  0  0  0
  6 17  1  0  0  0  0
  7 10  1  0  0  0  0
  7 14  1  0  0  0  0
  7 30  1  6  0  0  0
  8 10  1  0  0  0  0
  9 11  1  0  0  0  0
 12 15  1  0  0  0  0
 14 16  2  0  0  0  0
 14 18  1  0  0  0  0
 15 16  1  0  0  0  0
 16 19  1  0  0  0  0
 17 22  3  0  0  0  0
 18 20  2  0  0  0  0
 19 21  2  0  0  0  0
 20 21  1  0  0  0  0
 23 24  1  0  0  0  0
 23 25  1  0  0  0  0
 24 26  1  0  0  0  0
 25 27  1  0  0  0  0
 26 27  1  0  0  0  0
M  END
> <DATABASE_ID>
DB04575

> <DATABASE_NAME>
drugbank

> <SMILES>
[H][C@@]12CC[C@@](O)(C#C)[C@@]1(C)CC[C@]1([H])C3=C(CC[C@@]21[H])C=C(OC1CCCC1)C=C3

> <INCHI_IDENTIFIER>
InChI=1S/C25H32O2/c1-3-25(26)15-13-23-22-10-8-17-16-19(27-18-6-4-5-7-18)9-11-20(17)21(22)12-14-24(23,25)2/h1,9,11,16,18,21-23,26H,4-8,10,12-15H2,2H3/t21-,22-,23+,24+,25+/m1/s1

> <INCHI_KEY>
InChIKey=PWZUUYSISTUNDW-VAFBSOEGSA-N

> <JCHEM_ACCEPTOR_COUNT>
2

> <JCHEM_AVERAGE_POLARIZABILITY>
44.016226313153915

> <JCHEM_BIOAVAILABILITY>
1

> <JCHEM_DONOR_COUNT>
1

> <JCHEM_EXACT_MASS>
364.240230268

> <JCHEM_FORMAL_CHARGE>
0

> <JCHEM_FORMULA>
C25H32O2

> <JCHEM_GHOSE_FILTER>
1

> <JCHEM_IUPAC>
(1S,10R,11S,14R,15S)-5-(cyclopentyloxy)-14-ethynyl-15-methyltetracyclo[8.7.0.0^{2,7}.0^{11,15}]heptadeca-2(7),3,5-trien-14-ol

> <ALOGPS_LOGP>
5.19

> <JCHEM_LOGP>
5.397949010666668

> <ALOGPS_LOGS>
-5.37

> <JCHEM_MASS>
364.5204

> <JCHEM_MDDR_LIKE_RULE>
0

> <JCHEM_NUMBER_OF_RINGS>
5

> <JCHEM_PHYSIOLOGICAL_CHARGE>
0

> <JCHEM_PKA_STRONGEST_ACIDIC>
17.594918895355708

> <JCHEM_PKA_STRONGEST_BASIC>
-1.6634995932141448

> <JCHEM_POLAR_SURFACE_AREA>
29.46

> <JCHEM_REFRACTIVITY>
108.27000000000001

> <JCHEM_ROTATABLE_BOND_COUNT>
2

> <JCHEM_RULE_OF_FIVE>
0

> <ALOGPS_SOLUBILITY>
1.57e-03 g/l

> <JCHEM_TRADITIONAL_IUPAC>
quinestrol

> <JCHEM_VEBER_RULE>
1

> <DRUGBANK_ID>
DB04575

> <DRUG_GROUPS>
approved

> <GENERIC_NAME>
Quinestrol

> <SYNONYMS>
17-alpha-Ethinylestradiol 3-cyclopentyl ether; 17alpha-Ethynylestradiol 3-cyclopentyl ether; Estradiol-17-beta 3-cyclopentyl ether; ethinyl estradiol 3-cyclopentyl ether; Quinestrolo; Quinestrolum

> <BRANDS>
Estrovis
