
  Mrv0541 04191212122D

 60 68  0  0  1  0            999 V2000
    8.3363  -26.5047    0.0000 C   0  0  0  0  0  0  0  0  0  0  0  0
    8.5554  -27.3026    0.0000 C   0  0  0  0  0  0  0  0  0  0  0  0
    9.3543  -27.5103    0.0000 C   0  0  0  0  0  0  0  0  0  0  0  0
    8.9126  -25.9174    0.0000 C   0  0  0  0  0  0  0  0  0  0  0  0
    9.7111  -26.1214    0.0000 C   0  0  0  0  0  0  0  0  0  0  0  0
    9.9325  -26.9224    0.0000 C   0  0  0  0  0  0  0  0  0  0  0  0
   10.7627  -26.9594    0.0000 N   0  0  0  0  0  0  0  0  0  0  0  0
   11.0545  -26.1812    0.0000 C   0  0  0  0  0  0  0  0  0  0  0  0
   10.4045  -25.6634    0.0000 C   0  0  0  0  0  0  0  0  0  0  0  0
   11.8687  -24.9027    0.0000 N   0  0  0  0  0  0  0  0  0  0  0  0
   11.8292  -25.7278    0.0000 C   0  0  0  0  0  0  0  0  0  0  0  0
   12.5205  -26.1714    0.0000 C   0  0  1  0  0  0  0  0  0  0  0  0
   13.2549  -25.7947    0.0000 C   0  0  0  0  0  0  0  0  0  0  0  0
   13.2936  -24.9696    0.0000 C   0  0  0  0  0  0  0  0  0  0  0  0
   12.5979  -24.5213    0.0000 C   0  0  0  0  0  0  0  0  0  0  0  0
   12.4807  -26.9954    0.0000 C   0  0  0  0  0  0  0  0  0  0  0  0
   11.7472  -27.3730    0.0000 C   0  0  1  0  0  0  0  0  0  0  0  0
   11.1233  -27.9168    0.0000 C   0  0  0  0  0  0  0  0  0  0  0  0
   12.4627  -27.7776    0.0000 C   0  0  0  0  0  0  0  0  0  0  0  0
   12.4674  -28.6006    0.0000 C   0  0  0  0  0  0  0  0  0  0  0  0
   13.1821  -29.0051    0.0000 C   0  0  0  0  0  0  0  0  0  0  0  0
   13.1659  -27.3607    0.0000 C   0  0  0  0  0  0  0  0  0  0  0  0
   13.8811  -27.7614    0.0000 C   0  0  0  0  0  0  0  0  0  0  0  0
   13.8941  -28.5841    0.0000 C   0  0  0  0  0  0  0  0  0  0  0  0
   14.6806  -28.8261    0.0000 N   0  0  0  0  0  0  0  0  0  0  0  0
   14.6596  -27.4949    0.0000 C   0  0  1  0  0  0  0  0  0  0  0  0
   15.1525  -28.1556    0.0000 C   0  0  2  0  0  0  0  0  0  0  0  0
   15.9665  -28.0596    0.0000 C   0  0  1  0  0  0  0  0  0  0  0  0
   16.2940  -27.3044    0.0000 C   0  0  1  0  0  0  0  0  0  0  0  0
   15.8025  -26.6467    0.0000 C   0  0  2  0  0  0  0  0  0  0  0  0
   16.1322  -25.8935    0.0000 C   0  0  0  0  0  0  0  0  0  0  0  0
   15.6442  -25.2269    0.0000 C   0  0  0  0  0  0  0  0  0  0  0  0
   14.8225  -25.3185    0.0000 C   0  0  0  0  0  0  0  0  0  0  0  0
   14.9856  -26.7400    0.0000 C   0  0  2  0  0  0  0  0  0  0  0  0
   14.4888  -26.0767    0.0000 N   0  0  0  0  0  0  0  0  0  0  0  0
   13.7044  -26.3442    0.0000 C   0  0  0  0  0  0  0  0  0  0  0  0
   13.7164  -27.1729    0.0000 C   0  0  0  0  0  0  0  0  0  0  0  0
   16.4731  -28.7109    0.0000 C   0  0  0  0  0  0  0  0  0  0  0  0
   16.5935  -26.4254    0.0000 C   0  0  0  0  0  0  0  0  0  0  0  0
   16.7982  -25.6262    0.0000 C   0  0  0  0  0  0  0  0  0  0  0  0
   17.1190  -27.3081    0.0000 O   0  0  0  0  0  0  0  0  0  0  0  0
   17.6176  -26.6509    0.0000 C   0  0  0  0  0  0  0  0  0  0  0  0
   18.4362  -26.7541    0.0000 O   0  0  0  0  0  0  0  0  0  0  0  0
   17.2977  -25.8905    0.0000 C   0  0  0  0  0  0  0  0  0  0  0  0
   14.9476  -29.6067    0.0000 C   0  0  0  0  0  0  0  0  0  0  0  0
   15.5684  -28.8653    0.0000 H   0  0  0  0  0  0  0  0  0  0  0  0
   11.7559  -29.0182    0.0000 O   0  0  0  0  0  0  0  0  0  0  0  0
   11.2879  -28.7228    0.0000 O   0  0  0  0  0  0  0  0  0  0  0  0
   11.7618  -29.8432    0.0000 C   0  0  0  0  0  0  0  0  0  0  0  0
   10.3418  -27.6524    0.0000 O   0  0  0  0  0  0  0  0  0  0  0  0
    9.7221  -28.1970    0.0000 C   0  0  0  0  0  0  0  0  0  0  0  0
   13.0998  -26.7501    0.0000 H   0  0  0  0  0  0  0  0  0  0  0  0
   14.0270  -24.5918    0.0000 C   0  0  0  0  0  0  0  0  0  0  0  0
   14.0665  -23.7678    0.0000 C   0  0  0  0  0  0  0  0  0  0  0  0
   15.6958  -27.1500    0.0000 H   0  0  0  0  0  0  0  0  0  0  0  0
   15.2458  -27.6458    0.0000 O   0  0  0  0  0  0  0  0  0  0  0  0
   16.1624  -29.4752    0.0000 O   0  0  0  0  0  0  0  0  0  0  0  0
   17.2903  -28.5979    0.0000 O   0  0  0  0  0  0  0  0  0  0  0  0
   17.7968  -29.2491    0.0000 C   0  0  0  0  0  0  0  0  0  0  0  0
   10.4412  -24.8392    0.0000 C   0  0  0  0  0  0  0  0  0  0  0  0
 10 15  1  0  0  0  0
 11 12  1  0  0  0  0
 26 34  1  0  0  0  0
 27 28  1  0  0  0  0
 28 29  1  0  0  0  0
 29 30  1  0  0  0  0
 34 30  1  0  0  0  0
 12 13  1  0  0  0  0
 13 14  2  0  0  0  0
 14 15  1  0  0  0  0
  5  4  2  0  0  0  0
 30 31  1  0  0  0  0
 31 32  2  0  0  0  0
 32 33  1  0  0  0  0
 33 35  1  0  0  0  0
 34 35  1  0  0  0  0
 12 16  1  0  0  0  0
  6  7  1  0  0  0  0
 16 17  1  0  0  0  0
 17  8  1  0  0  0  0
 35 36  1  0  0  0  0
 37 36  1  0  0  0  0
 26 37  1  1  0  0  0
  7  8  1  0  0  0  0
 28 38  1  6  0  0  0
 17 18  1  1  0  0  0
 30 39  1  6  0  0  0
 18 48  2  0  0  0  0
 39 40  1  0  0  0  0
  8  9  2  0  0  0  0
 29 41  1  1  0  0  0
 17 19  1  0  0  0  0
 41 42  1  0  0  0  0
  9  5  1  0  0  0  0
 42 43  2  0  0  0  0
 19 20  2  0  0  0  0
 42 44  1  0  0  0  0
  4  1  1  0  0  0  0
 25 45  1  0  0  0  0
 20 21  1  0  0  0  0
 27 46  1  1  0  0  0
 21 24  2  0  0  0  0
 20 47  1  0  0  0  0
 10 11  1  0  0  0  0
 23 22  2  0  0  0  0
 47 49  1  0  0  0  0
 22 19  1  0  0  0  0
 18 50  1  0  0  0  0
 23 24  1  0  0  0  0
 50 51  1  0  0  0  0
  5  6  1  0  0  0  0
 12 52  1  6  0  0  0
 14 53  1  0  0  0  0
  2  3  1  0  0  0  0
 53 54  1  0  0  0  0
 24 25  1  0  0  0  0
 34 55  1  6  0  0  0
 25 27  1  0  0  0  0
 28 56  1  0  0  0  0
 26 23  1  0  0  0  0
 38 57  2  0  0  0  0
 26 27  1  0  0  0  0
 38 58  1  0  0  0  0
  3  6  2  0  0  0  0
 58 59  1  0  0  0  0
  1  2  2  0  0  0  0
  9 60  1  0  0  0  0
 60 10  1  0  0  0  0
M  END
> <DATABASE_ID>
DB00361

> <DATABASE_NAME>
drugbank

> <SMILES>
[H][C@@]12N(C)C3=CC(OC)=C(C=C3[C@@]11CCN3CC=C[C@@](CC)([C@@H](OC(C)=O)[C@@]2(O)C(=O)OC)[C@@]13[H])[C@]1(C[C@@]2([H])CN(CC(CC)=C2)CC2=C1NC1=CC=CC=C21)C(=O)OC

> <INCHI_IDENTIFIER>
InChI=1S/C45H54N4O8/c1-8-27-19-28-22-44(40(51)55-6,36-30(25-48(23-27)24-28)29-13-10-11-14-33(29)46-36)32-20-31-34(21-35(32)54-5)47(4)38-43(31)16-18-49-17-12-15-42(9-2,37(43)49)39(57-26(3)50)45(38,53)41(52)56-7/h10-15,19-21,28,37-39,46,53H,8-9,16-18,22-25H2,1-7H3/t28-,37-,38+,39+,42+,43+,44-,45+/m0/s1

> <INCHI_KEY>
InChIKey=GBABOYUKABKIAF-GHYRFKGUSA-N

> <JCHEM_ACCEPTOR_COUNT>
8

> <JCHEM_AVERAGE_POLARIZABILITY>
84.69568470367211

> <JCHEM_BIOAVAILABILITY>
1

> <JCHEM_DONOR_COUNT>
2

> <JCHEM_EXACT_MASS>
778.394164724

> <JCHEM_FORMAL_CHARGE>
0

> <JCHEM_FORMULA>
C45H54N4O8

> <JCHEM_GHOSE_FILTER>
0

> <JCHEM_IUPAC>
methyl (1R,9R,10R,11R,12R,19R)-11-(acetyloxy)-12-ethyl-4-[(12S,14R)-16-ethyl-12-(methoxycarbonyl)-1,10-diazatetracyclo[12.3.1.0^{3,11}.0^{4,9}]octadeca-3(11),4,6,8,15-pentaen-12-yl]-10-hydroxy-5-methoxy-8-methyl-8,16-diazapentacyclo[10.6.1.0^{1,9}.0^{2,7}.0^{16,19}]nonadeca-2,4,6,13-tetraene-10-carboxylate

> <ALOGPS_LOGP>
4.39

> <JCHEM_LOGP>
4.648204366666668

> <ALOGPS_LOGS>
-4.81

> <JCHEM_MASS>
778.9323

> <JCHEM_MDDR_LIKE_RULE>
1

> <JCHEM_NUMBER_OF_RINGS>
9

> <JCHEM_PHYSIOLOGICAL_CHARGE>
2

> <JCHEM_PKA>
15.049389417207031

> <JCHEM_PKA_STRONGEST_ACIDIC>
10.868410669211885

> <JCHEM_PKA_STRONGEST_BASIC>
8.718613643658665

> <JCHEM_POLAR_SURFACE_AREA>
133.87

> <JCHEM_REFRACTIVITY>
216.98749999999998

> <JCHEM_ROTATABLE_BOND_COUNT>
10

> <JCHEM_RULE_OF_FIVE>
0

> <ALOGPS_SOLUBILITY>
1.22e-02 g/l

> <JCHEM_TRADITIONAL_IUPAC>
methyl (1R,9R,10R,11R,12R,19R)-11-(acetyloxy)-12-ethyl-4-[(12S,14R)-16-ethyl-12-(methoxycarbonyl)-1,10-diazatetracyclo[12.3.1.0^{3,11}.0^{4,9}]octadeca-3(11),4,6,8,15-pentaen-12-yl]-10-hydroxy-5-methoxy-8-methyl-8,16-diazapentacyclo[10.6.1.0^{1,9}.0^{2,7}.0^{16,19}]nonadeca-2,4,6,13-tetraene-10-carboxylate

> <JCHEM_VEBER_RULE>
0

> <DRUGBANK_ID>
DB00361

> <DRUG_GROUPS>
approved; investigational

> <GENERIC_NAME>
Vinorelbine

> <SYNONYMS>
5'-Noranhydrovinblastine; Vinorelbin; Vinorelbina; Vinorelbine; Vinorelbinum

> <BRANDS>
Bendarelbin; Eberelbin; Eunexon; Eurovinorelbin; Filcrin; Navelbin; Navelbine; Navildez; Navin; Navirel; Neocitec; Renovel; Riborelbin; Vilne; Vinelbine; Vinorayne; Vinorel; Vinorgen; Vinotel; Zinavin

> <SALTS>
Vinorelbine Ditartrate; Vinorelbine Tartrate
